
  Mestrela06102620472D

  4  3  0  0  0  0  0  0  0  0999 V2000
    0.0000    0.0000    0.0000 C   0  0  0  0  0  0  0  0  0  0  0  0
    1.3338    0.7702    0.0000 C   0  0  0  0  0  0  0  0  0  0  0  0
    2.6675    0.0000    0.0000 H   0  0  0  0  0  0  0  0  0  0  0  0
    1.3338    2.3102    0.0000 O   0  0  0  0  0  0  0  0  0  0  0  0
  2  3  1  0  0  0  0
  2  4  2  0  0  0  0
  1  2  1  0  0  0  0
M  END
