structure.mol
  ChemDraw07062613352D

  4  3  0  0  0  0  0  0  0  0999 V2000
   -0.7348   -0.6183    0.0000 C   0  0  0  0  0  0  0  0  0  0  0  0
   -0.0204   -0.2058    0.0000 C   0  0  0  0  0  0  0  0  0  0  0  0
   -0.0589    0.6183    0.0000 O   0  0  0  0  0  0  0  0  0  0  0  0
    0.7348   -0.5378    0.0000 H   0  0  0  0  0  0  0  0  0  0  0  0
  1  2  1  0      
  2  3  2  0      
  2  4  1  0      
M  END
